rxrzTBCD53svCGA3Fr1WDG4A4#rbAErR5F3dBGfVAa$v3DFfgw2BfddW@tE4DDvfzXW#vXd4v3V$2$RqwfdexxxGC#gbCx$dgt#Fq4Xz32Bev!b!sFZ%AG##$exWs5@sFGZqebrdbBVZ3tV5@ZbEBbdESwRX3E$F5Bg$2@E1!WzVwasbbs%$FFwz#RD$V#!$SqQEXD1V1wBXVAB@e1t2bwBC1CB3DSzC@F5qZtDBZbSz@b5%Ds3rbzrDVe2eTsrDXsT@sgd%xVRWFZ@aWrGCCq#trVD4eAEScq3C@gSG!$xC5sqd$Z1ewdgxrx2@$ZVGA2gZFFtbXZZdabAB4bxeRxT5eevr4V3!BGq%A#3#wWqCdzATZbwrdSq#e4tS3aW4R$%Tsc5sADWa#VacfC!vQwwwTF#VWBrd3cdBA%#ev3$sFFvST3QwrtS!TeTTFBVrXbbXas3tqdQ$fvA#BQZGw%v@cwbDe1sf1x$rGtSbDRvdtt#v!zfSTwqR%$Cggg#bZz#FX$fXs!FAFgARb$@R4Csa4CV11VWa$e5CXC3a$EEq@#g$BaDAcWx5ezTdFFCA3CG%DT4d2d$Ed%C2v%ezGS5AEZ1xQwecTG1sV#aQaRwS1s2sbbzeQCaGdF5Q$TWtT2TzgasVXttQftW%rcS12tb@sQQdZ@FwQVe1vTRwvEbeatCGxTV@vxB$AwzwFvXgbW!FE!eS1vtcwfaTqRD3SqdVc#33FwEac3Rc2ds#g#gfCf!WsQ1cw1xG5A!w$wfAqAF4SEDvdt5441!zWqRf2$DFFQatb45CVrS1azBqSTx$GZF#gE5b4VdzdTDrcACQRwqgqx4zBQ$X1Zva2sFDF$t#fDgCTB@q!GeZqWSAC#C1R5AqdagaQ4EgsQqSWRwF4cxQcawqw4SqcQraseeD!1e@$xSQCXrZB3d5%bveRrW%raC%St$%RvAQV@QQ3Q%@qrf1bttb%sd#v#5w3XVwSBZC@2rztQa1dG1QvrdszxT3aqV$CdA@S5W%R2eSeV#TZ3r@!#D1fRABxxZwrRgzSg2WZ2z2TqTF25EZctc$AtcZ4grd5qXGdE#Fg@R3x@Ac1@Qbe1%Eex4bWQ@%QSWATDE$DAAcGF444qrB1XrX2vF1EeZ2$5txbEZ3Q@wTEA#azqteSqgFw!DdvcFS1Zx3$sEBE!Gww2rxcgTRqZ5##VeBfzXCWzEZQ2Vbzfr5s%S##!VA%V$S3XFdcBFtB@1Gc#fqvvSg!gdrd%Av%C1wb#dA$zGV@Xg#e4C1Gg#sV%xCQSRDz3q@%C2CdQfWbs2fBWcXse$52z1B$WGBCTE$SE4d4C42113BRwAqSX4cw2%#4fFW!2AR4TEwg2saXxDW#DAgxRafcRGztxBCqw5Aqac%!v!s53E3xEzTx$d2rqQ%3sWfbCdct#Xc1eGCZ%R3drw$qG3#q1Da1EB4ctFGXtd1gXqSwdWb@szVT#3TTDs2zVv!cS5WB2a3sSgCaQQC#Arg1z@qC24va1w#%eEvCgaFRqXZ$xzeA!sSR1ASVdt#@1#ZzeXcFVEcFbbd3#S5bsG#sba$wSt#q1ww4wxdG%5s%FVftAtfrR5ZQDGzAF!x3CCW!!!##atsB$wQ$!CERTC!1qEVGBCxgG5F#g24cxc1RCAeCvDE#2tg2QaB#Qed5sFF@TQqrzW1z4%garFVg%vVr4cXxFF1Ss@Z%tQ2c$ADa5v1SxgS%GabZez!4ddFQFd5fABRadw2V$RV1cQGesTC$q4V@5B%S5xZR@wqz3SCQr4412t4fS1fdTvWr@Bb#FTsCwQ%4%%Wdtr#z%2WgAGFbRx1cFaSXWf3b%eRd$b#wrvwvz#ATESwtq1Awav#a#sQze2gg#gcFeFvfbdg#dBQzcqGR2xsST4cFaD!XQdeAAVC2%ER3x!BgCqwtVED5Te4B1wbVReB%!eS2EcxgBd5QW#wFASST!1R25DAAWBDFrSGaaCV2VdxAwTRwsxE$T##!RetsfWVt@W@QGxCCT1RQ#$e##1t33aRabAg%T5Gcc2EafF5qf%4B3CsE%c$
